<?xml version='1.0' encoding='UTF-8' standalone='yes' ?><hierarchy rotation="0"><node index="0" text="" resource-id="" class="android.widget.FrameLayout" package="com.bushers.flasher" content-desc="" checkable="false" checked="false" clickable="false" enabled="true" focusable="false" focused="false" scrollable="false" long-clickable="false" password="false" selected="false" bounds="[0,0][1080,2400]"><node index="0" text="" resource-id="" class="android.widget.LinearLayout" package="com.bushers.flasher" content-desc="" checkable="false" checked="false" clickable="false" enabled="true" focusable="false" focused="false" scrollable="false" long-clickable="false" password="false" selected="false" bounds="[0,0][1080,2400]"><node index="0" text="" resource-id="android:id/content" class="android.widget.FrameLayout" package="com.bushers.flasher" content-desc="" checkable="false" checked="false" clickable="false" enabled="true" focusable="false" focused="false" scrollable="false" long-clickable="false" password="false" selected="false" bounds="[0,0][1080,2400]"><node index="0" text="" resource-id="" class="androidx.compose.ui.platform.ComposeView" package="com.bushers.flasher" content-desc="" checkable="false" checked="false" clickable="false" enabled="true" focusable="false" focused="false" scrollable="false" long-clickable="false" password="false" selected="false" bounds="[0,0][1080,2400]"><node index="0" text="" resource-id="" class="android.view.View" package="com.bushers.flasher" content-desc="" checkable="false" checked="false" clickable="false" enabled="true" focusable="false" focused="false" scrollable="false" long-clickable="false" password="false" selected="false" bounds="[0,0][1080,2400]"><node index="0" text="" resource-id="" class="android.view.View" package="com.bushers.flasher" content-desc="" checkable="false" checked="false" clickable="false" enabled="true" focusable="false" focused="false" scrollable="false" long-clickable="false" password="false" selected="false" bounds="[0,0][1080,2400]"><node index="0" text="" resource-id="" class="android.view.View" package="com.bushers.flasher" content-desc="" checkable="false" checked="false" clickable="false" enabled="true" focusable="false" focused="false" scrollable="false" long-clickable="false" password="false" selected="false" bounds="[0,0][1080,2400]"><node index="0" text="" resource-id="" class="android.view.View" package="com.bushers.flasher" content-desc="" checkable="false" checked="false" clickable="false" enabled="true" focusable="false" focused="false" scrollable="false" long-clickable="false" password="false" selected="false" bounds="[0,0][1080,2400]"><node index="0" text="" resource-id="" class="android.view.View" package="com.bushers.flasher" content-desc="" checkable="false" checked="false" clickable="false" enabled="true" focusable="false" focused="false" scrollable="false" long-clickable="false" password="false" selected="false" bounds="[0,270][1080,2050]"><node index="0" text="" resource-id="" class="android.widget.ScrollView" package="com.bushers.flasher" content-desc="" checkable="false" checked="false" clickable="false" enabled="true" focusable="false" focused="false" scrollable="true" long-clickable="false" password="false" selected="false" bounds="[0,270][1080,2050]"><node index="0" text="ESP32 DEVICES" resource-id="" class="android.widget.TextView" package="com.bushers.flasher" content-desc="" checkable="false" checked="false" clickable="false" enabled="true" focusable="false" focused="false" scrollable="false" long-clickable="false" password="false" selected="false" bounds="[66,336][307,375]" /><node index="1" text="Select a standard ESP32 to flash firmware. JTAG and other variants are blocked." resource-id="" class="android.widget.TextView" package="com.bushers.flasher" content-desc="" checkable="false" checked="false" clickable="false" enabled="true" focusable="false" focused="false" scrollable="false" long-clickable="false" password="false" selected="false" bounds="[66,397][1014,485]" /><node index="2" text="" resource-id="" class="android.view.View" package="com.bushers.flasher" content-desc="" checkable="false" checked="false" clickable="false" enabled="true" focusable="false" focused="false" scrollable="false" long-clickable="false" password="false" selected="false" bounds="[66,551][1014,1244]"><node index="0" text="" resource-id="" class="android.view.View" package="com.bushers.flasher" content-desc="" checkable="false" checked="false" clickable="false" enabled="true" focusable="false" focused="false" scrollable="false" long-clickable="false" password="false" selected="false" bounds="[66,494][1014,626]" /><node index="1" text="CP2102N USB to UART Bridge Controller" resource-id="" class="android.widget.TextView" package="com.bushers.flasher" content-desc="" checkable="false" checked="false" clickable="false" enabled="true" focusable="false" focused="false" scrollable="false" long-clickable="false" password="false" selected="false" bounds="[209,680][959,804]" /><node index="2" text="CHIP TYPE" resource-id="" class="android.widget.TextView" package="com.bushers.flasher" content-desc="" checkable="false" checked="false" clickable="false" enabled="true" focusable="false" focused="false" scrollable="false" long-clickable="false" password="false" selected="false" bounds="[121,904][287,943]" /><node index="3" text="Unknown" resource-id="" class="android.widget.TextView" package="com.bushers.flasher" content-desc="" checkable="false" checked="false" clickable="false" enabled="true" focusable="false" focused="false" scrollable="false" long-clickable="false" password="false" selected="false" bounds="[121,943][278,988]" /><node index="4" text="PORT" resource-id="" class="android.widget.TextView" package="com.bushers.flasher" content-desc="" checkable="false" checked="false" clickable="false" enabled="true" focusable="false" focused="false" scrollable="false" long-clickable="false" password="false" selected="false" bounds="[562,904][648,943]" /><node index="5" text="USB" resource-id="" class="android.widget.TextView" package="com.bushers.flasher" content-desc="" checkable="false" checked="false" clickable="false" enabled="true" focusable="false" focused="false" scrollable="false" long-clickable="false" password="false" selected="false" bounds="[562,943][634,988]" /><node index="6" text="" resource-id="" class="android.view.View" package="com.bushers.flasher" content-desc="" checkable="false" checked="false" clickable="false" enabled="true" focusable="false" focused="false" scrollable="false" long-clickable="false" password="false" selected="false" bounds="[121,968][959,1100]" /><node index="7" text="" resource-id="" class="android.view.View" package="com.bushers.flasher" content-desc="" checkable="false" checked="false" clickable="true" enabled="true" focusable="true" focused="false" scrollable="false" long-clickable="false" password="false" selected="false" bounds="[685,1057][959,1189]"><node index="0" text="IDENTIFY" resource-id="" class="android.widget.TextView" package="com.bushers.flasher" content-desc="" checkable="false" checked="false" clickable="false" enabled="true" focusable="false" focused="false" scrollable="false" long-clickable="false" password="false" selected="false" bounds="[751,1104][893,1143]" /><node index="1" text="" resource-id="" class="android.widget.Button" package="com.bushers.flasher" content-desc="" checkable="false" checked="false" clickable="false" enabled="true" focusable="false" focused="false" scrollable="false" long-clickable="false" password="false" selected="false" bounds="[685,1068][959,1178]" /></node></node><node index="3" text="" resource-id="" class="android.view.View" package="com.bushers.flasher" content-desc="" checkable="false" checked="false" clickable="false" enabled="true" focusable="false" focused="false" scrollable="false" long-clickable="false" password="false" selected="false" bounds="[66,1310][1014,2003]"><node index="0" text="" resource-id="" class="android.view.View" package="com.bushers.flasher" content-desc="" checkable="false" checked="false" clickable="false" enabled="true" focusable="false" focused="false" scrollable="false" long-clickable="false" password="false" selected="false" bounds="[66,1253][1014,1385]" /><node index="1" text="CP2102N USB to UART Bridge Controller" resource-id="" class="android.widget.TextView" package="com.bushers.flasher" content-desc="" checkable="false" checked="false" clickable="false" enabled="true" focusable="false" focused="false" scrollable="false" long-clickable="false" password="false" selected="false" bounds="[209,1439][959,1563]" /><node index="2" text="CHIP TYPE" resource-id="" class="android.widget.TextView" package="com.bushers.flasher" content-desc="" checkable="false" checked="false" clickable="false" enabled="true" focusable="false" focused="false" scrollable="false" long-clickable="false" password="false" selected="false" bounds="[121,1663][287,1702]" /><node index="3" text="Unknown" resource-id="" class="android.widget.TextView" package="com.bushers.flasher" content-desc="" checkable="false" checked="false" clickable="false" enabled="true" focusable="false" focused="false" scrollable="false" long-clickable="false" password="false" selected="false" bounds="[121,1702][278,1747]" /><node index="4" text="PORT" resource-id="" class="android.widget.TextView" package="com.bushers.flasher" content-desc="" checkable="false" checked="false" clickable="false" enabled="true" focusable="false" focused="false" scrollable="false" long-clickable="false" password="false" selected="false" bounds="[562,1663][648,1702]" /><node index="5" text="USB" resource-id="" class="android.widget.TextView" package="com.bushers.flasher" content-desc="" checkable="false" checked="false" clickable="false" enabled="true" focusable="false" focused="false" scrollable="false" long-clickable="false" password="false" selected="false" bounds="[562,1702][634,1747]" /><node index="6" text="" resource-id="" class="android.view.View" package="com.bushers.flasher" content-desc="" checkable="false" checked="false" clickable="false" enabled="true" focusable="false" focused="false" scrollable="false" long-clickable="false" password="false" selected="false" bounds="[121,1727][959,1859]" /><node NAF="true" index="7" text="" resource-id="" class="android.view.View" package="com.bushers.flasher" content-desc="" checkable="false" checked="false" clickable="true" enabled="true" focusable="true" focused="false" scrollable="false" long-clickable="false" password="false" selected="false" bounds="[685,1816][959,1948]"><node index="0" text="" resource-id="" class="android.widget.Button" package="com.bushers.flasher" content-desc="" checkable="false" checked="false" clickable="false" enabled="true" focusable="false" focused="false" scrollable="false" long-clickable="false" password="false" selected="false" bounds="[685,1827][959,1937]" /></node></node></node><node NAF="true" index="1" text="" resource-id="" class="android.view.View" package="com.bushers.flasher" content-desc="" checkable="false" checked="false" clickable="true" enabled="true" focusable="true" focused="false" scrollable="false" long-clickable="false" password="false" selected="false" bounds="[713,1830][1014,1984]"><node index="0" text="" resource-id="" class="android.view.View" package="com.bushers.flasher" content-desc="" checkable="false" checked="false" clickable="false" enabled="true" focusable="false" focused="false" scrollable="false" long-clickable="false" password="false" selected="false" bounds="[823,1842][959,1974]"><node index="0" text="" resource-id="" class="android.view.View" package="com.bushers.flasher" content-desc="" checkable="false" checked="false" clickable="false" enabled="true" focusable="false" focused="false" scrollable="false" long-clickable="false" password="false" selected="false" bounds="[823,1880][959,1935]" /></node><node index="1" text="" resource-id="" class="android.widget.Button" package="com.bushers.flasher" content-desc="" checkable="false" checked="false" clickable="false" enabled="true" focusable="false" focused="false" scrollable="false" long-clickable="false" password="false" selected="false" bounds="[713,1830][1014,1984]" /></node></node><node index="1" text="" resource-id="" class="android.view.View" package="com.bushers.flasher" content-desc="" checkable="false" checked="false" clickable="false" enabled="true" focusable="false" focused="false" scrollable="false" long-clickable="false" password="false" selected="false" bounds="[0,0][1080,270]"><node index="0" text="" resource-id="" class="android.view.View" package="com.bushers.flasher" content-desc="" checkable="false" checked="false" clickable="false" enabled="true" focusable="false" focused="false" scrollable="false" long-clickable="false" password="false" selected="false" bounds="[0,94][1080,270]"><node index="0" text="" resource-id="" class="android.view.View" package="com.bushers.flasher" content-desc="" checkable="false" checked="false" clickable="true" enabled="true" focusable="true" focused="false" scrollable="false" long-clickable="false" password="false" selected="false" bounds="[11,116][143,248]"><node index="0" text="" resource-id="" class="android.view.View" package="com.bushers.flasher" content-desc="Memory" checkable="false" checked="false" clickable="false" enabled="true" focusable="false" focused="false" scrollable="false" long-clickable="false" password="false" selected="false" bounds="[44,149][110,215]" /><node index="1" text="" resource-id="" class="android.widget.Button" package="com.bushers.flasher" content-desc="" checkable="false" checked="false" clickable="false" enabled="true" focusable="false" focused="false" scrollable="false" long-clickable="false" password="false" selected="false" bounds="[22,127][132,237]" /></node><node index="1" text="" resource-id="" class="android.view.View" package="com.bushers.flasher" content-desc="" checkable="false" checked="false" clickable="false" enabled="true" focusable="false" focused="false" scrollable="false" long-clickable="false" password="false" selected="false" bounds="[381,116][700,248]"><node index="0" text="System Status" resource-id="" class="android.widget.TextView" package="com.bushers.flasher" content-desc="" checkable="false" checked="false" clickable="false" enabled="true" focusable="false" focused="false" scrollable="false" long-clickable="false" password="false" selected="false" bounds="[381,153][700,211]" /></node><node index="2" text="" resource-id="" class="android.view.View" package="com.bushers.flasher" content-desc="" checkable="false" checked="false" clickable="true" enabled="true" focusable="true" focused="false" scrollable="false" long-clickable="false" password="false" selected="false" bounds="[937,116][1069,248]"><node index="0" text="" resource-id="" class="android.view.View" package="com.bushers.flasher" content-desc="Settings" checkable="false" checked="false" clickable="false" enabled="true" focusable="false" focused="false" scrollable="false" long-clickable="false" password="false" selected="false" bounds="[970,149][1036,215]" /><node index="1" text="" resource-id="" class="android.widget.Button" package="com.bushers.flasher" content-desc="" checkable="false" checked="false" clickable="false" enabled="true" focusable="false" focused="false" scrollable="false" long-clickable="false" password="false" selected="false" bounds="[948,127][1058,237]" /></node></node></node><node index="2" text="" resource-id="" class="android.view.View" package="com.bushers.flasher" content-desc="" checkable="false" checked="false" clickable="false" enabled="true" focusable="false" focused="false" scrollable="false" long-clickable="false" password="false" selected="false" bounds="[0,2050][1080,2400]"><node index="0" text="" resource-id="" class="android.view.View" package="com.bushers.flasher" content-desc="" checkable="false" checked="false" clickable="false" enabled="true" focusable="false" focused="false" scrollable="false" long-clickable="false" password="false" selected="false" bounds="[0,2050][1080,2270]"><node index="0" text="" resource-id="" class="android.view.View" package="com.bushers.flasher" content-desc="" checkable="false" checked="false" clickable="false" enabled="true" focusable="true" focused="false" scrollable="false" long-clickable="false" password="false" selected="true" bounds="[0,2050][346,2270]"><node index="0" text="" resource-id="" class="android.view.View" package="com.bushers.flasher" content-desc="" checkable="false" checked="false" clickable="false" enabled="true" focusable="false" focused="false" scrollable="false" long-clickable="false" password="false" selected="false" bounds="[96,2064][250,2196]" /><node index="1" text="" resource-id="" class="android.view.View" package="com.bushers.flasher" content-desc="" checkable="false" checked="false" clickable="false" enabled="true" focusable="false" focused="false" scrollable="false" long-clickable="false" password="false" selected="false" bounds="[107,2139][239,2271]"><node index="0" text="Devices" resource-id="" class="android.widget.TextView" package="com.bushers.flasher" content-desc="" checkable="false" checked="false" clickable="false" enabled="true" focusable="false" focused="false" scrollable="false" long-clickable="false" password="false" selected="false" bounds="[114,2185][232,2224]" /></node><node index="2" text="" resource-id="" class="android.view.View" package="com.bushers.flasher" content-desc="" checkable="false" checked="false" clickable="false" enabled="true" focusable="false" focused="false" scrollable="false" long-clickable="false" password="false" selected="false" bounds="[140,2097][206,2163]" /><node index="3" text="" resource-id="" class="android.view.View" package="com.bushers.flasher" content-desc="" checkable="false" checked="false" clickable="false" enabled="true" focusable="false" focused="false" scrollable="false" long-clickable="false" password="false" selected="false" bounds="[96,2064][250,2196]" /><node index="4" text="" resource-id="" class="android.view.View" package="com.bushers.flasher" content-desc="" checkable="false" checked="false" clickable="false" enabled="true" focusable="false" focused="false" scrollable="false" long-clickable="false" password="false" selected="false" bounds="[0,2050][346,2270]" /></node><node index="1" text="" resource-id="" class="android.view.View" package="com.bushers.flasher" content-desc="" checkable="false" checked="false" clickable="true" enabled="true" focusable="true" focused="false" scrollable="false" long-clickable="false" password="false" selected="false" bounds="[368,2050][713,2270]"><node index="1" text="" resource-id="" class="android.view.View" package="com.bushers.flasher" content-desc="" checkable="false" checked="false" clickable="false" enabled="true" focusable="false" focused="false" scrollable="false" long-clickable="false" password="false" selected="false" bounds="[475,2139][607,2271]"><node index="0" text="Flashing" resource-id="" class="android.widget.TextView" package="com.bushers.flasher" content-desc="" checkable="false" checked="false" clickable="false" enabled="true" focusable="false" focused="false" scrollable="false" long-clickable="false" password="false" selected="false" bounds="[477,2185][604,2224]" /></node><node index="2" text="" resource-id="" class="android.view.View" package="com.bushers.flasher" content-desc="" checkable="false" checked="false" clickable="false" enabled="true" focusable="false" focused="false" scrollable="false" long-clickable="false" password="false" selected="false" bounds="[507,2097][573,2163]" /><node index="3" text="" resource-id="" class="android.view.View" package="com.bushers.flasher" content-desc="" checkable="false" checked="false" clickable="false" enabled="true" focusable="false" focused="false" scrollable="false" long-clickable="false" password="false" selected="false" bounds="[463,2064][617,2196]" /><node index="4" text="" resource-id="" class="android.view.View" package="com.bushers.flasher" content-desc="" checkable="false" checked="false" clickable="false" enabled="true" focusable="false" focused="false" scrollable="false" long-clickable="false" password="false" selected="false" bounds="[368,2050][713,2270]" /></node><node index="2" text="" resource-id="" class="android.view.View" package="com.bushers.flasher" content-desc="" checkable="false" checked="false" clickable="true" enabled="true" focusable="true" focused="false" scrollable="false" long-clickable="false" password="false" selected="false" bounds="[735,2050][1080,2270]"><node index="1" text="" resource-id="" class="android.view.View" package="com.bushers.flasher" content-desc="" checkable="false" checked="false" clickable="false" enabled="true" focusable="false" focused="false" scrollable="false" long-clickable="false" password="false" selected="false" bounds="[842,2139][974,2271]"><node index="0" text="About" resource-id="" class="android.widget.TextView" package="com.bushers.flasher" content-desc="" checkable="false" checked="false" clickable="false" enabled="true" focusable="false" focused="false" scrollable="false" long-clickable="false" password="false" selected="false" bounds="[862,2185][953,2224]" /></node><node index="2" text="" resource-id="" class="android.view.View" package="com.bushers.flasher" content-desc="" checkable="false" checked="false" clickable="false" enabled="true" focusable="false" focused="false" scrollable="false" long-clickable="false" password="false" selected="false" bounds="[874,2097][940,2163]" /><node index="3" text="" resource-id="" class="android.view.View" package="com.bushers.flasher" content-desc="" checkable="false" checked="false" clickable="false" enabled="true" focusable="false" focused="false" scrollable="false" long-clickable="false" password="false" selected="false" bounds="[830,2064][984,2196]" /><node index="4" text="" resource-id="" class="android.view.View" package="com.bushers.flasher" content-desc="" checkable="false" checked="false" clickable="false" enabled="true" focusable="false" focused="false" scrollable="false" long-clickable="false" password="false" selected="false" bounds="[735,2050][1080,2270]" /></node></node></node></node></node></node></node></node></node></node></node></hierarchy>